* C:\Users\eeta07\OneDrive\Documents\GitHub\ltspice-exercise\lecture2\temp0.asc
V1 a 0 6
R1 a b 2k
R2 b c 1k
R3 c 0 1k
* Vab=
.backanno
.end
