* C:\Users\bear917\Documents\GitHub\ltspice-exercise\lecture2\temp1.asc
V1 a 0 6
R1 a b 2k
R2 b c 1k
R3 c 0 1k
* Vab=
* Vbc=
.op
.backanno
.end
